/batch
*get,_wallstrt,active,,time,wall
! ANSYS input file written by Workbench version 16.1 RELEASE
! File used for geometry attach: P:\Topology optimization\assignment1_files\dp0\SYS\DM\SYS.agdb
/title,assignment1--Static Structural (C5)
*DIM,_wb_ProjectScratch_dir,string,248
_wb_ProjectScratch_dir(1) = 'C:\Users\kchenau\Desktop\Ansys_Testing\Assignment 1 Ansys Result\_ProjectScratch\ScrF9F9\'
*DIM,_wb_SolverFiles_dir,string,248
_wb_SolverFiles_dir(1) = 'C:\Users\kchenau\Desktop\Ansys_Testing\Assignment 1 Ansys Result\assignment1_files\dp0\SYS-2\MECH\'
*DIM,_wb_userfiles_dir,string,248
_wb_userfiles_dir(1) = 'C:\Users\kchenau\Desktop\Ansys_Testing\Assignment 1 Ansys Result\assignment1_files\user_files\'
/com,--- Data in consistent MKS units. See Solving Units in the help system for more information.
/units,MKS
/nopr
/wb,file,start              !  signify a WB generated input file
/prep7
! Turn off shape checking because checks already performed inside WB mesher.
! See help system for more information.
SHPP,OFF,,NOWARN
/nolist
etcon,set             ! allow ANSYS to choose best KEYOP's for 180x elements
/com,*********** Nodes for the whole assembly ***********
nblock,3
(1i9,3e20.9e3)
        1    0.000000000E+000    6.000000000E+000    0.000000000E+000
        2    0.000000000E+000    0.000000000E+000    0.000000000E+000
        3    0.000000000E+000    5.899396055E+000    0.000000000E+000
        4    0.000000000E+000    5.799419135E+000    0.000000000E+000
        5    0.000000000E+000    5.699442216E+000    0.000000000E+000
        6    0.000000000E+000    5.599465296E+000    0.000000000E+000
        7    0.000000000E+000    5.499488376E+000    0.000000000E+000
        8    0.000000000E+000    5.399511457E+000    0.000000000E+000
        9    0.000000000E+000    5.299534537E+000    0.000000000E+000
       10    0.000000000E+000    5.199557617E+000    0.000000000E+000
       11    0.000000000E+000    5.099580697E+000    0.000000000E+000
       12    0.000000000E+000    4.999603778E+000    0.000000000E+000
       13    0.000000000E+000    4.899626858E+000    0.000000000E+000
       14    0.000000000E+000    4.799649938E+000    0.000000000E+000
       15    0.000000000E+000    4.699673019E+000    0.000000000E+000
       16    0.000000000E+000    4.599696099E+000    0.000000000E+000
       17    0.000000000E+000    4.499719179E+000    0.000000000E+000
       18    0.000000000E+000    4.399742259E+000    0.000000000E+000
       19    0.000000000E+000    4.299765340E+000    0.000000000E+000
       20    0.000000000E+000    4.199788420E+000    0.000000000E+000
! ... 21438 like lines cut
/wb,elem,start            !  set before creation of elements
/com,*********** Elements for Body 1 "Surface Body" ***********
et,1,183
keyo,1,3,3
eblock,19,solid,,7034
(19i9)
        1        1        1        1        0        0        0        0        8        0        1     1076      928     1166     1165     9182     9183     9686     9496
        1        1        1        1        0        0        0        0        8        0        2     1074      928     1076     1075     9181     9182     9493     9491
        1        1        1        1        0        0        0        0        8        0        3     1749     7044     1929     1932    10906    11293    11291    10905
        1        1        1        1        0        0        0        0        8        0        4     1402     1330     1574     7044    10032    10033    10537    10180
        1        1        1        1        0        0        0        0        8        0        5      355     1402     7044     1749     7917    10180    10906     7919
        1        1        1        1        0        0        0        0        8        0        6     2116     2117     2138     7170    11695    11699    11744    11697
        1        1        1        1        0        0        0        0        8        0        7     2120     2116     7170     2323    11696    11697    12139    11705
        1        1        1        1        0        0        0        0        8        0        8     1403     1402      355     1575    10179     7917     7918    10182
        1        1        1        1        0        0        0        0        8        0        9     1575      355     1749     1750     7918     7919    10904    10539
        1        1        1        1        0        0        0        0        8        0       10      526      532      531      530     8335     8345     8343     8334
        1        1        1        1        0        0        0        0        8        0       11      527      533      532      526     8336     8347     8335     8333
        1        1        1        1        0        0        0        0        8        0       12      411      527      526      525     8089     8333     8330     8088
        1        1        1        1        0        0        0        0        8        0       13      412      527      411      410     8091     8089     8084     8085
        1        1        1        1        0        0        0        0        8        0       14      410      409      413      412     8081     8082     8090     8085
        1        1        1        1        0        0        0        0        8        0       15      409      408      414      413     8078     8079     8093     8082
        1        1        1        1        0        0        0        0        8        0       16      408      407      415      414     8075     8076     8095     8079
        1        1        1        1        0        0        0        0        8        0       17      407      406      416      415     8072     8073     8097     8076
        1        1        1        1        0        0        0        0        8        0       18      406      405      417      416     8069     8070     8099     8073
        1        1        1        1        0        0        0        0        8        0       19      405      404      418      417     8066     8067     8101     8070
        1        1        1        1        0        0        0        0        8        0       20      404      403      419      418     8063     8064     8103     8067
! ... 7015 like lines cut
!Material Id = {F468C64E-5BD6-4C2C-9B8C-C1B859A11389}
/wb,elem,end               !  done creating elements
/com,*********** Send User Defined Coordinate System(s) ***********
csys,0
toffst,273.15,  ! Temperature offset from absolute zero
/com,*********** Set Reference Temperature ***********
tref,22.
/wb,mat,start              !  starting to send materials
/com,*********** Send Materials ***********
MP,DENS,1,7850,	! kg m^-3
MP,ALPX,1,1.2e-05,	! C^-1
MP,C,1,434,	! J kg^-1 C^-1
MP,KXX,1,60.5,	! W m^-1 C^-1
MP,RSVX,1,1.7e-07,	! kg m^3 A^-2 s^-3
MP,EX,1,100000000,	! Pa
MP,NUXY,1,0.3,
MP,MURX,1,10000,

/wb,mat,end                !  done sending materials
/com,*********** Send Sheet Properties ***********
r,1,1.
!************************* Model Summary ********************
!Surface Body,	Structural Steel,	matid,	1
!************************* End Model Summary ********************
! get the diagonal of the bounding box. Needed later for other things
*get,_xmin,node,,mnloc,x
*get,_ymin,node,,mnloc,y
*get,_zmin,node,,mnloc,z
*get,_xmax,node,,mxloc,x
*get,_ymax,node,,mxloc,y
*get,_zmax,node,,mxloc,z
_ASMDIAG=(_xmax-_xmin)*(_xmax-_xmin)+(_ymax-_ymin)*(_ymax-_ymin)+(_zmax-_zmin)*(_zmax-_zmin)
_ASMDIAG=SQRT(_ASMDIAG)
/wb,contact,start          !  starting to send contact
/wb,contact,end            !  done creating contacts
/golist
/wb,load,start             !  starting to send loads
/com,*********** Fixed Supports ***********
CMBLOCK,_FIXEDSU,NODE,        1
(8i10)
         2
cmsel,s,_FIXEDSU
d,all,all
nsel,all
/com,******* Constant Zero Displacement Y *******
CMBLOCK,_DISPZEROUY,NODE,        1
(8i10)
        62
cmsel,s,_DISPZEROUY
d,all,uy,0
nsel,all
nsel,all
/com,*********** Define Vertex Force Using Follower Elements ***********
et,2,201
keyo,2,1,1           ! Keep the direction constant
keyo,2,2,1           ! Apply Forces only, not moment
mat,2
real,2
type,2
en,7035,179
r,2
rmod,2,1,1.0,              ! FX
mat,3
real,3
type,2
en,7036,179
r,3
rmod,3,2,1.0,              ! FY

*DIM,_loadvari119x,TABLE,2,1,1,TIME,
! Time values
_loadvari119x(1,0,1) = 0.
_loadvari119x(2,0,1) = 1.
! Load values
_loadvari119x(1,1,1) = 0.
_loadvari119x(2,1,1) = 4.44089223084952e-015


*DIM,_loadvari119y,TABLE,2,1,1,TIME,
! Time values
_loadvari119y(1,0,1) = 0.
_loadvari119y(2,0,1) = 1.
! Load values
_loadvari119y(1,1,1) = -0.
_loadvari119y(2,1,1) = -15.

/gst,on,on
fini
*get,_numnode,node,0,count
*get,_numelem,elem,0,count
*get, _MAXELEMNUM, elem, 0, NUM, MAX
*get, _MAXNODENUM, node, 0, NUM, MAX
*get, _MAXELEMTYPE, etyp, 0, NUM, MAX
*get, _MAXREALCONST, real, 0, NUM, MAX
/go
/wb,load,end               !  done creating loads
/com,--- Number of total nodes = %_numnode%
/com,--- Number of contact elements = 0
/com,--- Number of spring elements = 0
/com,--- Number of bearing elements = 0
/com,--- Number of solid elements = 7034
/com,--- Number of total elements = %_numelem%
*get,_wallbsol,active,,time,wall
/com,****************************************************************************
/com,*************************    SOLUTION       ********************************
/com,****************************************************************************
/solu
antype,0                   ! static analysis
eqsl,sparse,,,,,1
cntr,print,1               ! print out contact info and also make no initial contact an error
nldiag,cont,iter           ! print out contact info each equilibrium iteration
resc,,none                 ! Do not keep any restart files
/com,****************************************************
/com,******************* SOLVE FOR LS 1 ****************
esel,s,real,,2
sfe,all,1,pres,1,%_loadvari119x%
esel,s,real,,3
sfe,all,1,pres,1,%_loadvari119y%
esel,all
/nopr
/gopr
nsub,1,1,1
time,1.
outres,erase
outres,all,none
outres,nsol,all
outres,rsol,all
outres,strs,all
outres,epel,all
outres,eppl,all
stabilize,off                   ! Stabilization turned OFF by user
! *********** WB SOLVE COMMAND ***********
! check interactive state
*get,ANSINTER_,active,,int
*if,ANSINTER_,ne,0,then
/eof
*endif
solve
/com *************** Write FE CONNECTORS ********* 
CEWRITE,file,ce,,INTE
/com,****************************************************
/com,*************** FINISHED SOLVE FOR LS 1 *************
*set,_DS_PROGRESS          ! turn off progress updates to avoid virus scanning bug
*get,_wallasol,active,,time,wall
/nopr
*get,_numnode,node,0,count
*get,_numelem,elem,0,count
*get, _MAXELEMNUM, elem, 0, NUM, MAX
*get, _MAXNODENUM, node, 0, NUM, MAX,,,INTERNAL
*get, _MAXELEMTYPE, etyp, 0, NUM, MAX
*get, _MAXREALCONST, real, 0, NUM, MAX
/gopr
/post1
xmlo,ENCODING,ISO-8859-1
xmlo,parm
/xml,parm,xml
fini
/gopr
*get,_walldone,active,,time,wall
_preptime=(_wallbsol-_wallstrt)*3600
_solvtime=(_wallasol-_wallbsol)*3600
_posttime=(_walldone-_wallasol)*3600
_totaltim=(_walldone-_wallstrt)*3600
/wb,file,end               ! done with WB generated input
